28
Coordinates from ORCA-job AQ
  Na  -13.78603265605772      3.81956915000714     -1.84199925120979
  O   1.40478122338731     -0.35683664698289      0.15960190697674
  C   2.73514026092683     -0.34535968015441      0.13114320927272
  C   3.44473424927126      0.94843351504706      0.11159114135338
  C   2.74752729304885      2.13320741120303      0.14893134437796
  C   3.37427734504331      3.43355844889801      0.16354730280929
  C   4.77193144992402      3.45598860907177      0.05955374534245
  C   5.52931249408649      2.30015006105696      0.01289610185211
  C   4.92012145106617      0.96248612660200      0.05141064381834
  C   5.69221557164649     -0.18332931617970      0.02781232811010
  O   7.02328525893049     -0.15254678129868     -0.03627134588852
  C   4.99065244079459     -1.48151262236359      0.09137566550474
  C   5.69140298519048     -2.66280059960256      0.13021047183099
  C   5.05520948619216     -3.97354912684475      0.22659627191740
  S   5.95757760073244     -5.42493583043038      0.11755721179726
  O   5.04971596715015     -6.55336952688532      0.43088210806412
  O   6.52617216520891     -5.61801481394157     -1.24378579377515
  O   7.08430280345075     -5.37982910851523      1.07994142554988
  C   3.64415125950282     -3.98249195785734      0.19907789741393
  C   2.90411453970466     -2.82846574646407      0.15172871911159
  C   3.51265211811775     -1.49099367395111      0.12535811016855
  H   1.66400018626499      2.04483920707958      0.19865662858274
  H   2.78456068509506      4.34596680635503      0.09632483974294
  H   5.28954415253277      4.42043865411697      0.02809447758215
  H   6.61303913178560      2.35141472447103     -0.04248152590681
  H   6.77434449474510     -2.58837834598719      0.11067578604836
  H   3.13390398468433     -4.94358590096247      0.22471298593479
  H   1.81905205757344     -2.87870303548720      0.15977759361775
